Version 4
SHEET 1 2588 1108
WIRE -208 0 -272 0
WIRE 560 16 528 16
WIRE 592 16 560 16
WIRE 128 32 96 32
WIRE 752 32 720 32
WIRE 848 32 816 32
WIRE 304 48 272 48
WIRE 480 48 432 48
WIRE 592 48 480 48
WIRE 128 64 32 64
WIRE 480 80 480 48
WIRE 560 80 560 16
WIRE -304 96 -336 96
WIRE -160 112 -192 112
WIRE -304 128 -336 128
WIRE -160 144 -192 144
WIRE -128 144 -160 144
WIRE -304 160 -336 160
WIRE 480 160 480 144
WIRE 560 160 560 144
WIRE 848 160 848 32
WIRE 880 160 848 160
WIRE -160 176 -160 144
WIRE -160 256 -160 240
WIRE 560 256 528 256
WIRE 592 256 560 256
WIRE 128 272 96 272
WIRE 752 272 720 272
WIRE 848 272 848 160
WIRE 848 272 816 272
WIRE 304 288 272 288
WIRE 480 288 432 288
WIRE 592 288 480 288
WIRE 32 304 32 64
WIRE 32 304 0 304
WIRE 128 304 32 304
WIRE 480 320 480 288
WIRE 560 320 560 256
WIRE 480 400 480 384
WIRE 560 400 560 384
FLAG -208 0 Vss
FLAG -272 0 LVdd
IOPIN -272 0 In
FLAG -336 160 ~LOCK
IOPIN -336 160 In
FLAG -160 112 CS0
FLAG 528 16 HVss0
IOPIN 528 16 In
FLAG -336 128 C0
IOPIN -336 128 In
FLAG 560 400 0
FLAG 528 256 HVss1
IOPIN 528 256 In
FLAG 880 160 HVo
IOPIN 880 160 Out
FLAG -128 144 ~CS0
FLAG 480 160 0
FLAG 96 272 CS0
FLAG 192 -16 Vss
FLAG 192 112 0
FLAG 0 304 EN
IOPIN 0 304 In
FLAG 96 32 ~CS0
FLAG 192 224 Vss
FLAG 192 352 0
FLAG 352 96 0
FLAG 352 336 0
FLAG 336 0 Vss
FLAG 336 240 Vss
FLAG -160 256 0
FLAG 560 160 0
FLAG 480 400 0
FLAG -336 96 Vss
SYMBOL cap 544 320 R0
SYMATTR InstName C2
SYMATTR Value 10µ
SYMBOL cap 464 80 R0
SYMATTR InstName C3
SYMATTR Value 0.1µ
SYMBOL schottky 752 288 R270
WINDOW 0 32 32 VTop 2
WINDOW 3 0 32 VBottom 2
SYMATTR InstName D2
SYMATTR Value MBRS360
SYMATTR Description Diode
SYMATTR Type diode
SYMBOL schottky 752 48 R270
WINDOW 0 32 32 VTop 2
WINDOW 3 0 32 VBottom 2
SYMATTR InstName D1
SYMATTR Value MBRS360
SYMATTR Description Diode
SYMATTR Type diode
SYMBOL cap -176 176 R0
SYMATTR InstName C4
SYMATTR Value 0.1µ
SYMBOL cap 544 80 R0
SYMATTR InstName C1
SYMATTR Value 10µ
SYMBOL cap 464 320 R0
SYMATTR InstName C5
SYMATTR Value 0.1µ
SYMBOL CMOS_DLATCH -256 128 R0
SYMATTR InstName X1
SYMBOL 9530n_PMOS_HSS 656 32 R0
SYMATTR InstName X2
SYMBOL 9530n_PMOS_HSS 656 272 R0
SYMATTR InstName X3
SYMBOL CMOS_NAND 192 48 R0
SYMATTR InstName X4
SYMBOL CMOS_NAND 192 288 R0
SYMATTR InstName X5
SYMBOL CMOS_INV 368 48 R0
SYMATTR InstName X6
SYMBOL CMOS_INV 368 288 R0
SYMATTR InstName X7
TEXT -328 -288 Left 3 ;2 Channel Power Multiplexer (PMux-2ch)
TEXT -328 -256 Left 1 ;Controls the open/closed state of 2 HV MOSFET switches\n \nPinout:\n  *     logV       :    logic voltage\n  *     C0          :    5V digital control voltage\n  *     EN          :    switch enable\n  *  ~LOCK      :    lock switch in last state\n  *     HVssi      :    high-voltage input #i\n  *     HVo        :    switched high-voltage output
TEXT -248 200 Center 1 ;D-Latch\n(Switch State)
TEXT 104 -208 Left 0 ;Copyright © 2023 Brian Costantino\n \nThis file is a part of DynaVolt.\n \nDynaVolt is a free hardware design: you can redistribute it and/or modify it under the terms of the CERN Open Hardware License (OHL) v2.\n \nDynaVolt is distributed in the hope that it will be useful, but WITHOUT ANY WARRANTY; without even the implied warranty of MERCHANTABILITY or \nFITNESS FOR A PARTICULAR PURPOSE. See ~/LICENSE for more details.\n \nYou should have received a copy of the CERN-OHL-W v2 along with this repository. If not, see https://ohwr.org/cern_ohl_w_v2.tx
LINE Normal 880 -80 -336 -80 2
