Version 4
SHEET 1 1588 1108
WIRE 144 -208 112 -208
WIRE 288 -192 256 -192
WIRE 144 -176 112 -176
WIRE 288 -160 256 -160
WIRE 320 -160 288 -160
WIRE 144 -144 112 -144
WIRE 288 -128 288 -160
WIRE 288 -48 288 -64
WIRE 176 64 144 64
WIRE 208 64 176 64
WIRE -256 80 -272 80
WIRE 368 80 336 80
WIRE 464 80 432 80
WIRE -80 96 -112 96
WIRE 96 96 48 96
WIRE 208 96 96 96
WIRE -464 112 -464 80
WIRE -256 112 -352 112
WIRE 96 128 96 96
WIRE 176 128 176 64
WIRE 96 208 96 192
WIRE 176 208 176 192
WIRE 464 208 464 80
WIRE 496 208 464 208
WIRE -464 224 -464 192
WIRE 176 304 144 304
WIRE 208 304 176 304
WIRE -256 320 -272 320
WIRE 368 320 336 320
WIRE 464 320 464 208
WIRE 464 320 432 320
WIRE -80 336 -112 336
WIRE 96 336 48 336
WIRE 208 336 96 336
WIRE -352 352 -352 112
WIRE -352 352 -384 352
WIRE -256 352 -352 352
WIRE 96 368 96 336
WIRE 176 368 176 304
WIRE 96 448 96 432
WIRE 176 448 176 432
FLAG -464 224 0
FLAG -464 80 Vss
FLAG 112 -208 Vss
FLAG 112 -144 ~LOCK
IOPIN 112 -144 In
FLAG 288 -192 CS0
FLAG 144 64 HVss1
IOPIN 144 64 In
FLAG 112 -176 C0
IOPIN 112 -176 In
FLAG 176 448 0
FLAG 144 304 HVss2
IOPIN 144 304 In
FLAG 496 208 HVo
IOPIN 496 208 Out
FLAG 320 -160 ~CS0
FLAG 96 208 0
FLAG -272 80 CS0
FLAG -192 32 Vss
FLAG -192 160 0
FLAG -384 352 EN
IOPIN -384 352 In
FLAG -272 320 ~CS0
FLAG -192 272 Vss
FLAG -192 400 0
FLAG -32 144 0
FLAG -32 384 0
FLAG -48 48 Vss
FLAG -48 288 Vss
FLAG 288 -48 0
FLAG 176 208 0
FLAG 96 448 0
SYMBOL voltage -464 96 R0
WINDOW 123 0 0 Left 0
WINDOW 39 0 0 Left 0
SYMATTR InstName V4
SYMATTR Value 5
SYMBOL Custom\\PCM\\9530n_PMOS_HSS 272 80 R0
SYMATTR InstName X2
SYMBOL cap 160 368 R0
SYMATTR InstName C2
SYMATTR Value 1µ
SYMBOL Custom\\PCM\\9530n_PMOS_HSS 272 320 R0
SYMATTR InstName X3
SYMBOL cap 80 128 R0
SYMATTR InstName C3
SYMATTR Value 0.1µ
SYMBOL schottky 368 336 R270
WINDOW 0 32 32 VTop 2
WINDOW 3 0 32 VBottom 2
SYMATTR InstName D2
SYMATTR Value MBRS360
SYMATTR Description Diode
SYMATTR Type diode
SYMBOL schottky 368 96 R270
WINDOW 0 32 32 VTop 2
WINDOW 3 0 32 VBottom 2
SYMATTR InstName D1
SYMATTR Value MBRS360
SYMATTR Description Diode
SYMATTR Type diode
SYMBOL Custom\\Logic\\CMOS_DLATCH 192 -176 R0
SYMATTR InstName X5
SYMBOL Custom\\Logic\\CMOS_NAND -192 96 R0
SYMATTR InstName X4
SYMBOL Custom\\Logic\\CMOS_NAND -192 336 R0
SYMATTR InstName X6
SYMBOL Custom\\Logic\\CMOS_INV -16 96 R0
SYMATTR InstName X7
SYMBOL Custom\\Logic\\CMOS_INV -16 336 R0
SYMATTR InstName X8
SYMBOL cap 272 -128 R0
SYMATTR InstName C4
SYMATTR Value 0.1µ
SYMBOL cap 160 128 R0
SYMATTR InstName C1
SYMATTR Value 1µ
SYMBOL cap 80 368 R0
SYMATTR InstName C5
SYMATTR Value 0.1µ
TEXT -448 -16 Left 2 !.tran 4
TEXT -448 -264 Left 3 ;PSM Control 1-bit - Test
TEXT -448 -224 Left 1 ;Controls the open/closed state of 2 HV (12V - 24V) \nMOSFET switches\n \nPinout:\n  *     logV       :    logic voltage\n  *     C0          :    5V digital control voltage\n  *     EN          :    switch enable\n  *  ~LOCK      :    lock switch in last state\n  *     HVi         :    high-voltage input\n  *     HVo        :    switched high-voltage output
TEXT 200 -104 Center 1 ;D-Latch\n(Switch State)
