Version 4
SHEET 1 1588 1108
WIRE 144 -208 112 -208
WIRE 608 -208 544 -208
WIRE 704 -208 608 -208
WIRE 288 -192 256 -192
WIRE 144 -176 112 -176
WIRE 608 -176 608 -208
WIRE 704 -176 704 -208
WIRE 288 -160 256 -160
WIRE 320 -160 288 -160
WIRE 144 -144 112 -144
WIRE 288 -128 288 -160
WIRE 608 -64 608 -112
WIRE 704 -64 704 -96
WIRE 288 -48 288 -64
WIRE 480 80 448 80
WIRE 80 96 48 96
WIRE 640 96 608 96
WIRE 736 96 704 96
WIRE -464 112 -464 80
WIRE -352 112 -352 80
WIRE -240 112 -240 80
WIRE 256 112 224 112
WIRE 448 112 384 112
WIRE 480 112 448 112
WIRE 80 128 48 128
WIRE 448 144 448 112
WIRE -464 224 -464 192
WIRE -352 224 -352 192
WIRE -240 224 -240 192
WIRE 448 224 448 208
WIRE 480 320 448 320
WIRE 80 336 48 336
WIRE 640 336 608 336
WIRE 736 336 704 336
WIRE 256 352 224 352
WIRE 448 352 384 352
WIRE 480 352 448 352
WIRE 80 368 48 368
WIRE -464 384 -464 352
WIRE -352 384 -352 352
WIRE -240 384 -240 352
WIRE 448 384 448 352
WIRE 448 464 448 448
WIRE -464 496 -464 464
WIRE -352 496 -352 464
WIRE -240 496 -240 464
FLAG -240 496 0
FLAG -352 496 0
FLAG -464 496 0
FLAG -464 224 0
FLAG -464 80 Vss
FLAG -464 352 C0
FLAG -352 352 EN
FLAG -240 352 ~LOCK
FLAG 112 -208 Vss
FLAG 112 -144 ~LOCK
FLAG 48 128 EN
FLAG 288 -192 CS0
FLAG -352 224 0
FLAG -352 80 HVss1
FLAG 448 80 HVss1
FLAG 736 96 HVdd
FLAG 112 -176 C0
FLAG 544 -208 HVdd
FLAG 704 -64 0
FLAG 608 -64 0
FLAG 448 464 0
FLAG 448 320 HVss2
FLAG 736 336 HVdd
FLAG -240 224 0
FLAG -240 80 HVss2
FLAG 320 -160 ~CS0
FLAG 448 224 0
FLAG 48 96 CS0
FLAG 144 48 Vss
FLAG 144 176 0
FLAG 48 368 EN
FLAG 48 336 ~CS0
FLAG 144 288 Vss
FLAG 144 416 0
FLAG 304 160 0
FLAG 304 400 0
FLAG 288 64 Vss
FLAG 288 304 Vss
FLAG 288 -48 0
SYMBOL voltage -464 368 R0
WINDOW 3 -32 240 Left 2
WINDOW 123 0 0 Left 0
WINDOW 39 0 0 Left 0
SYMATTR Value PULSE(0 5 0 1u 1u 0.25 0.5)
SYMATTR InstName V1
SYMBOL voltage -352 368 R0
WINDOW 3 -33 200 Left 2
WINDOW 123 0 0 Left 0
WINDOW 39 0 0 Left 0
SYMATTR Value PULSE(0 5 0 1u 1u 1 2)
SYMATTR InstName V2
SYMBOL voltage -240 368 R0
WINDOW 3 -36 164 Left 2
WINDOW 123 0 0 Left 0
WINDOW 39 0 0 Left 0
SYMATTR Value PULSE(0 5 0 1u 1u 0.6 1.2)
SYMATTR InstName V3
SYMBOL voltage -464 96 R0
WINDOW 123 0 0 Left 0
WINDOW 39 0 0 Left 0
SYMATTR InstName V4
SYMATTR Value 5
SYMBOL voltage -352 96 R0
WINDOW 123 0 0 Left 0
WINDOW 39 0 0 Left 0
SYMATTR InstName V5
SYMATTR Value 40
SYMBOL Custom\\PCM\\9530n_PMOS_HSS 544 96 R0
SYMATTR InstName X2
SYMBOL res 688 -192 R0
SYMATTR InstName RL
SYMATTR Value 1k
SYMBOL cap 592 -176 R0
SYMATTR InstName C1
SYMATTR Value 10µ
SYMBOL cap 432 384 R0
SYMATTR InstName C2
SYMATTR Value 0.1µ
SYMBOL Custom\\PCM\\9530n_PMOS_HSS 544 336 R0
SYMATTR InstName X3
SYMBOL voltage -240 96 R0
WINDOW 123 0 0 Left 0
WINDOW 39 0 0 Left 0
SYMATTR InstName V6
SYMATTR Value 30
SYMBOL cap 432 144 R0
SYMATTR InstName C3
SYMATTR Value 0.1µ
SYMBOL schottky 640 352 R270
WINDOW 0 32 32 VTop 2
WINDOW 3 0 32 VBottom 2
SYMATTR InstName D2
SYMATTR Value MBRS360
SYMATTR Description Diode
SYMATTR Type diode
SYMBOL schottky 640 112 R270
WINDOW 0 32 32 VTop 2
WINDOW 3 0 32 VBottom 2
SYMATTR InstName D1
SYMATTR Value MBRS360
SYMATTR Description Diode
SYMATTR Type diode
SYMBOL Custom\\Logic\\CMOS_DLATCH 192 -176 R0
SYMATTR InstName X5
SYMBOL Custom\\Logic\\CMOS_NAND 144 112 R0
SYMATTR InstName X4
SYMBOL Custom\\Logic\\CMOS_NAND 144 352 R0
SYMATTR InstName X6
SYMBOL Custom\\Logic\\CMOS_INV 320 112 R0
SYMATTR InstName X7
SYMBOL Custom\\Logic\\CMOS_INV 320 352 R0
SYMATTR InstName X8
SYMBOL cap 272 -128 R0
SYMATTR InstName C4
SYMATTR Value 0.1µ
TEXT -448 -16 Left 2 !.tran 4
TEXT -448 -264 Left 3 ;PSM Control 1-bit - Test
TEXT -448 -224 Left 1 ;Controls the open/closed state of 2 HV (12V - 24V) \nMOSFET switches\n \nPinout:\n  *     logV       :    logic voltage\n  *     C0          :    digital control voltage\n  *     EN          :    switch enable\n  *  ~LOCK      :    lock switch in last state\n  *     HVi         :    high-voltage input\n  *     HVo        :    switched high-voltage output
TEXT 200 -104 Center 1 ;D-Latch\n(Switch State)
TEXT 680 -232 Left 2 ;Load
