Version 4
SHEET 1 1652 752
WIRE 480 80 416 80
WIRE -48 96 -48 64
WIRE 640 96 608 96
WIRE 752 96 720 96
WIRE 832 96 752 96
WIRE 480 112 416 112
WIRE 752 128 752 96
WIRE 832 128 832 96
WIRE -48 208 -48 176
WIRE 752 240 752 192
WIRE 832 240 832 208
WIRE -48 336 -48 304
WIRE 80 336 80 304
WIRE 208 336 208 304
WIRE -48 448 -48 416
WIRE 80 448 80 416
WIRE 208 448 208 416
FLAG -48 208 0
FLAG -48 64 Vbb
FLAG 80 448 0
FLAG 80 304 5V
FLAG 208 448 0
FLAG 208 304 3V3
FLAG -48 448 0
FLAG -48 304 12V
FLAG 832 240 0
FLAG 752 240 0
FLAG 416 80 12V
FLAG 416 112 Vbb
SYMBOL voltage -48 80 R0
WINDOW 123 0 0 Left 0
WINDOW 39 0 0 Left 0
SYMATTR InstName V1
SYMATTR Value PULSE(0 5 0 1u 1u 1 2)
SYMBOL voltage 80 320 R0
WINDOW 123 0 0 Left 0
WINDOW 39 0 0 Left 0
SYMATTR InstName V2
SYMATTR Value 5
SYMBOL voltage 208 320 R0
WINDOW 123 0 0 Left 0
WINDOW 39 0 0 Left 0
SYMATTR InstName V3
SYMATTR Value 3.3
SYMBOL voltage -48 320 R0
WINDOW 123 0 0 Left 0
WINDOW 39 0 0 Left 0
SYMATTR InstName V4
SYMATTR Value 12
SYMBOL res 816 112 R0
SYMATTR InstName R3
SYMATTR Value 100
SYMBOL cap 736 128 R0
SYMATTR InstName C1
SYMATTR Value 1µ
SYMBOL PMOS_5VL_12VP_HSS 544 96 R0
SYMATTR InstName X1
SYMBOL res 736 80 R90
WINDOW 0 0 56 VBottom 2
WINDOW 3 32 56 VTop 2
SYMATTR InstName R1
SYMATTR Value {Rrtd}
TEXT -80 536 Left 2 !.tran 5
TEXT -80 696 Left 2 !.param Rrtd=R0*(1 + (tc1*Temp)+(tc2*Temp**2) + tc3*(Temp-100)*(Temp**3)*(1-u(Temp)))
TEXT -80 672 Left 2 !.param R0=100
TEXT -80 648 Left 2 !.param tc3=-4.183e-12
TEXT -80 624 Left 2 !.param tc2=-5.775e-7
TEXT -80 600 Left 2 !.param tc1=3.9083e-3
TEXT -80 560 Left 2 !.step Temp -100 100 10
TEXT -80 736 Left 2 !.measure step MyRoValue param Rrtd
