Version 4
SHEET 1 1652 1172
WIRE -48 96 -48 64
WIRE -48 208 -48 176
WIRE -48 336 -48 304
WIRE 80 336 80 304
WIRE 208 336 208 304
WIRE -48 448 -48 416
WIRE 80 448 80 416
WIRE 208 448 208 416
WIRE -32 672 -96 672
WIRE 144 688 96 688
WIRE 208 688 144 688
WIRE 304 688 272 688
WIRE -32 704 -96 704
WIRE 144 720 144 688
WIRE 416 752 416 720
WIRE 144 816 144 784
WIRE 416 864 416 832
WIRE 144 928 144 896
FLAG -48 208 0
FLAG -48 64 Vbb
FLAG 80 448 0
FLAG 80 304 5V
FLAG 208 448 0
FLAG 208 304 3V3
FLAG -48 448 0
FLAG -48 304 12V
FLAG 416 864 0
FLAG 144 928 0
FLAG -96 672 12V
FLAG -96 704 Vbb
FLAG 304 688 Vs
FLAG 416 720 Vs
SYMBOL voltage -48 80 R0
WINDOW 123 0 0 Left 0
WINDOW 39 0 0 Left 0
SYMATTR InstName V1
SYMATTR Value PULSE(0 5 0 100u 100u 0.5 1)
SYMBOL voltage 80 320 R0
WINDOW 123 0 0 Left 0
WINDOW 39 0 0 Left 0
SYMATTR InstName V2
SYMATTR Value 5
SYMBOL voltage 208 320 R0
WINDOW 123 0 0 Left 0
WINDOW 39 0 0 Left 0
SYMATTR InstName V3
SYMATTR Value 3.3
SYMBOL voltage -48 320 R0
WINDOW 123 0 0 Left 0
WINDOW 39 0 0 Left 0
SYMATTR InstName V4
SYMATTR Value 12
SYMBOL res 400 736 R0
SYMATTR InstName R3
SYMATTR Value 10
SYMBOL cap 128 720 R0
SYMATTR InstName C1
SYMATTR Value 0.1µ
SYMBOL PMOS_5VL_12VP_HSS 32 688 R0
SYMATTR InstName X1
SYMBOL schottky 208 704 R270
WINDOW 0 32 32 VTop 2
WINDOW 3 0 32 VBottom 2
SYMATTR InstName D1
SYMATTR Value MBRS340
SYMATTR Description Diode
SYMATTR Type diode
SYMBOL res 128 800 R0
SYMATTR InstName R4
SYMATTR Value 10k
TEXT -80 552 Left 2 !.tran 0 1.0002 1.00001
TEXT -80 576 Left 2 ;.step param RL 100 100k 1k
TEXT -80 528 Left 2 ;.tran 0 2 0
