Version 4
SHEET 1 1588 1108
WIRE 80 -64 48 -64
WIRE 544 -64 480 -64
WIRE 640 -64 544 -64
WIRE 224 -48 192 -48
WIRE 80 -32 48 -32
WIRE 544 -32 544 -64
WIRE 640 -32 640 -64
WIRE 224 -16 192 -16
WIRE 256 -16 224 -16
WIRE 80 0 48 0
WIRE 224 16 224 -16
WIRE 544 80 544 32
WIRE 640 80 640 48
WIRE 224 96 224 80
WIRE -464 112 -464 80
WIRE -352 112 -352 80
WIRE -240 112 -240 80
WIRE -464 224 -464 192
WIRE -352 224 -352 192
WIRE -240 224 -240 192
WIRE 416 224 384 224
WIRE 16 240 -16 240
WIRE 576 240 544 240
WIRE 672 240 640 240
WIRE 192 256 160 256
WIRE 384 256 320 256
WIRE 416 256 384 256
WIRE 16 272 -16 272
WIRE 384 288 384 256
WIRE 384 368 384 352
WIRE -464 384 -464 352
WIRE -352 384 -352 352
WIRE -240 384 -240 352
WIRE 416 464 384 464
WIRE 16 480 -16 480
WIRE 576 480 544 480
WIRE 672 480 640 480
WIRE -464 496 -464 464
WIRE -352 496 -352 464
WIRE -240 496 -240 464
WIRE 192 496 160 496
WIRE 384 496 320 496
WIRE 416 496 384 496
WIRE 16 512 -16 512
WIRE 384 528 384 496
WIRE 384 608 384 592
FLAG -240 496 0
FLAG -352 496 0
FLAG -464 496 0
FLAG -464 224 0
FLAG -464 80 Vss
FLAG -464 352 C0
FLAG -352 352 EN
FLAG -240 352 ~LOCK
FLAG 48 -64 Vss
FLAG 48 0 ~LOCK
FLAG -16 272 EN
FLAG 224 -48 CS0
FLAG -352 224 0
FLAG -352 80 HVss1
FLAG 384 224 HVss1
FLAG 672 240 HVdd
FLAG 48 -32 C0
FLAG 480 -64 HVdd
FLAG 640 80 0
FLAG 544 80 0
FLAG 384 608 0
FLAG 384 464 HVss2
FLAG 672 480 HVdd
FLAG -240 224 0
FLAG -240 80 HVss2
FLAG 256 -16 ~CS0
FLAG 384 368 0
FLAG -16 240 CS0
FLAG 80 192 Vss
FLAG 80 320 0
FLAG -16 512 EN
FLAG -16 480 ~CS0
FLAG 80 432 Vss
FLAG 80 560 0
FLAG 240 304 0
FLAG 240 544 0
FLAG 224 208 Vss
FLAG 224 448 Vss
FLAG 224 96 0
SYMBOL voltage -464 368 R0
WINDOW 3 -58 244 Left 2
WINDOW 123 0 0 Left 0
WINDOW 39 0 0 Left 0
SYMATTR Value PULSE(0 5 0 1u 1u 0.25 0.5)
SYMATTR InstName V1
SYMBOL voltage -352 368 R0
WINDOW 3 -93 199 Left 2
WINDOW 123 0 0 Left 0
WINDOW 39 0 0 Left 0
SYMATTR Value PULSE(0 5 0 1u 1u 1 2)
SYMATTR InstName V2
SYMBOL voltage -240 368 R0
WINDOW 3 -146 165 Left 2
WINDOW 123 0 0 Left 0
WINDOW 39 0 0 Left 0
SYMATTR Value PULSE(0 5 0 1u 1u 0.6 1.2)
SYMATTR InstName V3
SYMBOL voltage -464 96 R0
WINDOW 123 0 0 Left 0
WINDOW 39 0 0 Left 0
SYMATTR InstName V4
SYMATTR Value 5
SYMBOL voltage -352 96 R0
WINDOW 123 0 0 Left 0
WINDOW 39 0 0 Left 0
SYMATTR InstName V5
SYMATTR Value 40
SYMBOL 9530n_PMOS_HSS 480 240 R0
SYMATTR InstName X2
SYMBOL res 624 -48 R0
SYMATTR InstName RL
SYMATTR Value 1k
SYMBOL cap 528 -32 R0
SYMATTR InstName C1
SYMATTR Value 10µ
SYMBOL cap 368 528 R0
SYMATTR InstName C2
SYMATTR Value 0.1µ
SYMBOL 9530n_PMOS_HSS 480 480 R0
SYMATTR InstName X3
SYMBOL voltage -240 96 R0
WINDOW 123 0 0 Left 0
WINDOW 39 0 0 Left 0
SYMATTR InstName V6
SYMATTR Value 30
SYMBOL cap 368 288 R0
SYMATTR InstName C3
SYMATTR Value 0.1µ
SYMBOL schottky 576 496 R270
WINDOW 0 32 32 VTop 2
WINDOW 3 0 32 VBottom 2
SYMATTR InstName D2
SYMATTR Value MBRS360
SYMATTR Description Diode
SYMATTR Type diode
SYMBOL schottky 576 256 R270
WINDOW 0 32 32 VTop 2
WINDOW 3 0 32 VBottom 2
SYMATTR InstName D1
SYMATTR Value MBRS360
SYMATTR Description Diode
SYMATTR Type diode
SYMBOL CMOS_DLATCH 128 -32 R0
SYMATTR InstName X5
SYMBOL CMOS_NAND 80 256 R0
SYMATTR InstName X4
SYMBOL CMOS_NAND 80 496 R0
SYMATTR InstName X6
SYMBOL CMOS_INV 256 256 R0
SYMATTR InstName X7
SYMBOL CMOS_INV 256 496 R0
SYMATTR InstName X8
SYMBOL cap 208 16 R0
SYMATTR InstName C4
SYMATTR Value 0.1µ
TEXT -448 -16 Left 2 !.tran 4
TEXT -448 -264 Left 3 ;PSM Control 1-bit - Test
TEXT -448 -224 Left 1 ;Controls the open/closed state of 2 HV (12V - 24V) \nMOSFET switches\n \nPinout:\n  *     logV       :    logic voltage\n  *     C0          :    digital control voltage\n  *     EN          :    switch enable\n  *  ~LOCK      :    lock switch in last state\n  *     HVi         :    high-voltage input\n  *     HVo        :    switched high-voltage output
TEXT 136 40 Center 1 ;D-Latch\n(Switch State)
TEXT 616 -88 Left 2 ;Load
TEXT -8 -280 Left 0 ;Copyright © 2023 Brian Costantino\n \nThis file is a part of DynaVolt.\n \nDynaVolt is a free hardware design: you can redistribute it and/or modify \nit under the terms of the CERN Open Hardware License (OHL) v2.\n \nDynaVolt is distributed in the hope that it will be useful, but WITHOUT \nANY WARRANTY; without even the implied warranty of MERCHANTABILITY\nor FITNESS FOR A PARTICULAR PURPOSE. See ~/LICENSE for more details.\n \nYou should have received a copy of the CERN-OHL-W v2 along with this \nrepository. If not, see https://ohwr.org/cern_ohl_w_v2.tx
