Version 4
SHEET 1 1588 1108
WIRE -16 32 -48 32
WIRE -16 64 -48 64
WIRE 176 80 144 80
WIRE -16 96 -48 96
WIRE -464 112 -464 80
WIRE -352 112 -352 80
WIRE -240 112 -240 80
WIRE -16 144 -48 144
WIRE -16 176 -48 176
WIRE -16 208 -48 208
WIRE -464 224 -464 192
WIRE -352 224 -352 192
WIRE -240 224 -240 192
WIRE 32 320 -32 320
WIRE 128 320 32 320
WIRE 32 352 32 320
WIRE 128 352 128 320
WIRE -464 384 -464 352
WIRE -352 384 -352 352
WIRE -240 384 -240 352
WIRE 32 464 32 416
WIRE 128 464 128 432
WIRE -464 496 -464 464
WIRE -352 496 -352 464
WIRE -240 496 -240 464
FLAG -240 496 0
FLAG -352 496 0
FLAG -464 496 0
FLAG -464 224 0
FLAG -464 80 Vss
FLAG -464 352 C0
FLAG -352 352 EN
FLAG -240 352 ~LOCK
FLAG -352 224 0
FLAG -352 80 HVss1
FLAG -32 320 HVdd
FLAG 128 464 0
FLAG 32 464 0
FLAG -240 224 0
FLAG -240 80 HVss2
FLAG -48 64 HVss1
FLAG -48 96 HVss2
FLAG -48 144 C0
FLAG -48 208 EN
FLAG -48 176 ~LOCK
FLAG 176 80 HVdd
FLAG -48 32 Vss
SYMBOL voltage -464 368 R0
WINDOW 3 -23 260 Left 2
WINDOW 123 0 0 Left 0
WINDOW 39 0 0 Left 0
SYMATTR Value PULSE(0 5 0 1u 1u 0.25 0.5)
SYMATTR InstName V1
SYMBOL voltage -352 368 R0
WINDOW 3 -31 214 Left 2
WINDOW 123 0 0 Left 0
WINDOW 39 0 0 Left 0
SYMATTR Value PULSE(0 5 0 1u 1u 1 2)
SYMATTR InstName V2
SYMBOL voltage -240 368 R0
WINDOW 3 -35 175 Left 2
WINDOW 123 0 0 Left 0
WINDOW 39 0 0 Left 0
SYMATTR Value PULSE(0 5 0 1u 1u 0.6 1.2)
SYMATTR InstName V3
SYMBOL voltage -464 96 R0
WINDOW 123 0 0 Left 0
WINDOW 39 0 0 Left 0
SYMATTR InstName V4
SYMATTR Value 5
SYMBOL voltage -352 96 R0
WINDOW 123 0 0 Left 0
WINDOW 39 0 0 Left 0
SYMATTR InstName V5
SYMATTR Value 40
SYMBOL res 112 336 R0
SYMATTR InstName RL
SYMATTR Value 1k
SYMBOL cap 16 352 R0
SYMATTR InstName C1
SYMATTR Value 10µ
SYMBOL voltage -240 96 R0
WINDOW 123 0 0 Left 0
WINDOW 39 0 0 Left 0
SYMATTR InstName V6
SYMATTR Value 30
SYMBOL Custom\\PCM\\1b-PSM 64 112 R0
WINDOW 0 0 -80 Bottom 2
SYMATTR InstName X1
TEXT -448 -16 Left 2 !.tran 0 4 0 0.1s
TEXT -448 -264 Left 3 ;PSM Control 1-bit - Test
TEXT -448 -224 Left 1 ;Controls the open/closed state of 2 HV (12V - 24V) \nMOSFET switches\n \nPinout:\n  *     logV       :    logic voltage\n  *     C0          :    digital control voltage\n  *     EN          :    switch enable\n  *  ~LOCK      :    lock switch in last state\n  *     HVssi      :    high-voltage input #i\n  *     HVo        :    switched high-voltage output
TEXT 104 296 Left 2 ;Load
TEXT -16 -24 Left 2 ;1b Power Mux
